  Page 1                                    Tue Apr 28 15:50:22 2020

  ******************************************************************
  *                           E P A N E T                          *
  *                   Hydraulic and Water Quality                  *
  *                   Analysis for Pipe Networks                   *
  *                         Version 2.2                            *
  ******************************************************************
  
  Analysis begun Tue Apr 28 15:50:22 2020

   
  Hydraulic Status:
  -----------------------------------------------------------------------
     0:00:00: Balanced after 4 trials
     0:00:00: Reservoir 9 is emptying
     0:00:00: Tank 2 is filling at 120.00 ft
   
     1:00:00: Balanced after 2 trials
   
     2:00:00: Balanced after 3 trials
   
     3:00:00: Balanced after 2 trials
   
     4:00:00: Balanced after 3 trials
   
     5:00:00: Balanced after 2 trials
   
     6:00:00: Balanced after 2 trials
   
     7:00:00: Balanced after 1 trials
   
     8:00:00: Balanced after 2 trials
   
     9:00:00: Balanced after 2 trials
   
    10:00:00: Balanced after 2 trials
   
    11:00:00: Balanced after 2 trials
   
    12:00:00: Balanced after 3 trials
   
    12:32:34: Pump 9 changed by Tank 2 control
    12:32:34: Balanced after 4 trials
    12:32:34: Reservoir 9 is closed
    12:32:34: Tank 2 is emptying at 140.00 ft
    12:32:34: Pump 9 changed from open to closed
   
    13:00:00: Balanced after 1 trials
   
    14:00:00: Balanced after 2 trials
   
    15:00:00: Balanced after 1 trials
   
    16:00:00: Balanced after 2 trials
   
    17:00:00: Balanced after 1 trials
   
    18:00:00: Balanced after 2 trials
   
    19:00:00: Balanced after 1 trials
   
    20:00:00: Balanced after 2 trials
   
    21:00:00: Balanced after 1 trials
   
    22:00:00: Balanced after 2 trials
   
    22:41:30: Pump 9 changed by Tank 2 control
    22:41:30: Balanced after 15 trials
    22:41:30: Reservoir 9 is emptying
    22:41:30: Tank 2 is filling at 110.00 ft
    22:41:30: Pump 9 changed from closed to open
   
    23:00:00: Balanced after 2 trials
   
    24:00:00: Balanced after 3 trials
   
    25:00:00: Balanced after 2 trials
   
    26:00:00: Balanced after 3 trials
   
    27:00:00: Balanced after 2 trials
   
    28:00:00: Balanced after 3 trials
   
    29:00:00: Balanced after 2 trials
   
    30:00:00: Balanced after 2 trials
   
    31:00:00: Balanced after 2 trials
   
    32:00:00: Balanced after 2 trials
   
    33:00:00: Balanced after 2 trials
   
    34:00:00: Balanced after 2 trials
   
    35:00:00: Balanced after 2 trials
   
    36:00:00: Balanced after 3 trials
   
    37:00:00: Balanced after 2 trials
   
    37:49:13: Pump 9 changed by Tank 2 control
    37:49:13: Balanced after 4 trials
    37:49:13: Reservoir 9 is closed
    37:49:13: Tank 2 is emptying at 140.00 ft
    37:49:13: Pump 9 changed from open to closed
   
    38:00:00: Balanced after 2 trials
   
    39:00:00: Balanced after 1 trials
   
    40:00:00: Balanced after 2 trials
   
    41:00:00: Balanced after 1 trials
   
    42:00:00: Balanced after 2 trials
   
    43:00:00: Balanced after 1 trials
   
    44:00:00: Balanced after 2 trials
   
    45:00:00: Balanced after 1 trials
   
    46:00:00: Balanced after 2 trials
   
    47:00:00: Balanced after 1 trials
   
    48:00:00: Balanced after 2 trials
   
    48:13:51: Pump 9 changed by Tank 2 control
    48:13:51: Balanced after 14 trials
    48:13:51: Reservoir 9 is emptying
    48:13:51: Tank 2 is filling at 110.00 ft
    48:13:51: Pump 9 changed from closed to open
   
    49:00:00: Balanced after 2 trials
   
    50:00:00: Balanced after 3 trials
   
    51:00:00: Balanced after 2 trials
   
    52:00:00: Balanced after 3 trials
   
    53:00:00: Balanced after 2 trials
   
    54:00:00: Balanced after 2 trials
   
    55:00:00: Balanced after 2 trials
   
    56:00:00: Balanced after 2 trials
   
    57:00:00: Balanced after 2 trials
   
    58:00:00: Balanced after 2 trials
   
    59:00:00: Balanced after 2 trials
   
    60:00:00: Balanced after 3 trials
   
    61:00:00: Balanced after 2 trials
   
    62:00:00: Balanced after 3 trials
   
    63:00:00: Balanced after 2 trials
   
    63:07:21: Pump 9 changed by Tank 2 control
    63:07:21: Balanced after 4 trials
    63:07:21: Reservoir 9 is closed
    63:07:21: Tank 2 is emptying at 140.00 ft
    63:07:21: Pump 9 changed from open to closed
   
    64:00:00: Balanced after 2 trials
   
    65:00:00: Balanced after 1 trials
   
    66:00:00: Balanced after 2 trials
   
    67:00:00: Balanced after 1 trials
   
    68:00:00: Balanced after 2 trials
   
    69:00:00: Balanced after 1 trials
   
    70:00:00: Balanced after 2 trials
   
    71:00:00: Balanced after 1 trials
   
    72:00:00: Balanced after 2 trials
   
    73:00:00: Balanced after 1 trials
   
    73:18:31: Pump 9 changed by Tank 2 control
    73:18:31: Balanced after 14 trials
    73:18:31: Reservoir 9 is emptying
    73:18:31: Tank 2 is filling at 110.00 ft
    73:18:31: Pump 9 changed from closed to open
   
    74:00:00: Balanced after 3 trials
   
    75:00:00: Balanced after 2 trials
   
    76:00:00: Balanced after 3 trials
   
    77:00:00: Balanced after 2 trials
   
    78:00:00: Balanced after 2 trials
   
    79:00:00: Balanced after 2 trials
   
    80:00:00: Balanced after 2 trials
   
    81:00:00: Balanced after 2 trials
   
    82:00:00: Balanced after 2 trials
   
    83:00:00: Balanced after 2 trials
   
    84:00:00: Balanced after 3 trials
   
    85:00:00: Balanced after 2 trials
   
    86:00:00: Balanced after 3 trials
   
    87:00:00: Balanced after 2 trials
   
    87:51:06: Pump 9 changed by Tank 2 control
    87:51:06: Balanced after 4 trials
    87:51:06: Reservoir 9 is closed
    87:51:06: Tank 2 is emptying at 140.00 ft
    87:51:06: Pump 9 changed from open to closed
   
    88:00:00: Balanced after 2 trials
   
    89:00:00: Balanced after 1 trials
   
    90:00:00: Balanced after 2 trials
   
    91:00:00: Balanced after 1 trials
   
    92:00:00: Balanced after 2 trials
   
    93:00:00: Balanced after 1 trials
   
    94:00:00: Balanced after 2 trials
   
    95:00:00: Balanced after 1 trials
   
    96:00:00: Balanced after 2 trials
   
    97:00:00: Balanced after 1 trials
   
    97:53:31: Pump 9 changed by Tank 2 control
    97:53:31: Balanced after 14 trials
    97:53:31: Reservoir 9 is emptying
    97:53:31: Tank 2 is filling at 110.00 ft
    97:53:31: Pump 9 changed from closed to open
   
    98:00:00: Balanced after 3 trials
   
    99:00:00: Balanced after 2 trials
   
   100:00:00: Balanced after 3 trials
   
   101:00:00: Balanced after 2 trials
   
   102:00:00: Balanced after 2 trials
   
   103:00:00: Balanced after 2 trials
   
   104:00:00: Balanced after 2 trials
   
   105:00:00: Balanced after 2 trials
   
   106:00:00: Balanced after 2 trials
   
   107:00:00: Balanced after 2 trials
   
   108:00:00: Balanced after 3 trials
   
   109:00:00: Balanced after 2 trials
   
   110:00:00: Balanced after 3 trials
   
   111:00:00: Balanced after 2 trials
   
   112:00:00: Balanced after 3 trials
   
   112:11:57: Pump 9 changed by Tank 2 control
   112:11:57: Balanced after 4 trials
   112:11:57: Reservoir 9 is closed
   112:11:57: Tank 2 is emptying at 140.00 ft
   112:11:57: Pump 9 changed from open to closed
   
   113:00:00: Balanced after 1 trials
   
   114:00:00: Balanced after 2 trials
   
   115:00:00: Balanced after 1 trials
   
   116:00:00: Balanced after 2 trials
   
   117:00:00: Balanced after 1 trials
   
   118:00:00: Balanced after 2 trials
   
   119:00:00: Balanced after 1 trials
   
   120:00:00: Balanced after 2 trials
   
   121:00:00: Balanced after 1 trials
   
   122:00:00: Balanced after 2 trials
   
   122:06:30: Pump 9 changed by Tank 2 control
   122:06:30: Balanced after 15 trials
   122:06:30: Reservoir 9 is emptying
   122:06:30: Tank 2 is filling at 110.00 ft
   122:06:30: Pump 9 changed from closed to open
   
   123:00:00: Balanced after 2 trials
   
   124:00:00: Balanced after 3 trials
   
   125:00:00: Balanced after 2 trials
   
   126:00:00: Balanced after 2 trials
   
   127:00:00: Balanced after 2 trials
   
   128:00:00: Balanced after 2 trials
   
   129:00:00: Balanced after 2 trials
   
   130:00:00: Balanced after 2 trials
   
   131:00:00: Balanced after 2 trials
   
   132:00:00: Balanced after 3 trials
   
   133:00:00: Balanced after 2 trials
   
   134:00:00: Balanced after 3 trials
   
   135:00:00: Balanced after 2 trials
   
   136:00:00: Balanced after 3 trials
   
   136:18:10: Pump 9 changed by Tank 2 control
   136:18:10: Balanced after 4 trials
   136:18:10: Reservoir 9 is closed
   136:18:10: Tank 2 is emptying at 140.00 ft
   136:18:10: Pump 9 changed from open to closed
   
   137:00:00: Balanced after 1 trials
   
   138:00:00: Balanced after 2 trials
   
   139:00:00: Balanced after 1 trials
   
   140:00:00: Balanced after 2 trials
   
   141:00:00: Balanced after 1 trials
   
   142:00:00: Balanced after 2 trials
   
   143:00:00: Balanced after 1 trials
   
   144:00:00: Balanced after 2 trials
   
   145:00:00: Balanced after 1 trials
   
   146:00:00: Balanced after 2 trials
   
   146:09:37: Pump 9 changed by Tank 2 control
   146:09:37: Balanced after 15 trials
   146:09:37: Reservoir 9 is emptying
   146:09:37: Tank 2 is filling at 110.00 ft
   146:09:37: Pump 9 changed from closed to open
   
   147:00:00: Balanced after 2 trials
   
   148:00:00: Balanced after 3 trials
   
   149:00:00: Balanced after 2 trials
   
   150:00:00: Balanced after 2 trials
   
   151:00:00: Balanced after 2 trials
   
   152:00:00: Balanced after 2 trials
   
   153:00:00: Balanced after 2 trials
   
   154:00:00: Balanced after 2 trials
   
   155:00:00: Balanced after 2 trials
   
   156:00:00: Balanced after 3 trials
   
   157:00:00: Balanced after 2 trials
   
   158:00:00: Balanced after 3 trials
   
   159:00:00: Balanced after 2 trials
   
   160:00:00: Balanced after 3 trials
   
   160:19:28: Pump 9 changed by Tank 2 control
   160:19:28: Balanced after 4 trials
   160:19:28: Reservoir 9 is closed
   160:19:28: Tank 2 is emptying at 140.00 ft
   160:19:28: Pump 9 changed from open to closed
   
   161:00:00: Balanced after 1 trials
   
   162:00:00: Balanced after 2 trials
   
   163:00:00: Balanced after 1 trials
   
   164:00:00: Balanced after 2 trials
   
   165:00:00: Balanced after 1 trials
   
   166:00:00: Balanced after 2 trials
   
   167:00:00: Balanced after 1 trials
   
   168:00:00: Balanced after 2 trials
   
   169:00:00: Balanced after 1 trials
   
   170:00:00: Balanced after 2 trials
   
   170:10:16: Pump 9 changed by Tank 2 control
   170:10:16: Balanced after 15 trials
   170:10:16: Reservoir 9 is emptying
   170:10:16: Tank 2 is filling at 110.00 ft
   170:10:16: Pump 9 changed from closed to open
   
   171:00:00: Balanced after 2 trials
   
   172:00:00: Balanced after 3 trials
   
   173:00:00: Balanced after 2 trials
   
   174:00:00: Balanced after 2 trials
   
   175:00:00: Balanced after 2 trials
   
   176:00:00: Balanced after 2 trials
   
   177:00:00: Balanced after 2 trials
   
   178:00:00: Balanced after 2 trials
   
   179:00:00: Balanced after 2 trials
   
   180:00:00: Balanced after 3 trials
   
   181:00:00: Balanced after 2 trials
   
   182:00:00: Balanced after 3 trials
   
   183:00:00: Balanced after 2 trials
   
   184:00:00: Balanced after 3 trials
   
   184:19:43: Pump 9 changed by Tank 2 control
   184:19:43: Balanced after 4 trials
   184:19:43: Reservoir 9 is closed
   184:19:43: Tank 2 is emptying at 140.00 ft
   184:19:43: Pump 9 changed from open to closed
   
   185:00:00: Balanced after 1 trials
   
   186:00:00: Balanced after 2 trials
   
   187:00:00: Balanced after 1 trials
   
   188:00:00: Balanced after 2 trials
   
   189:00:00: Balanced after 1 trials
   
   190:00:00: Balanced after 2 trials
   
   191:00:00: Balanced after 1 trials
   
   192:00:00: Balanced after 2 trials
   
   193:00:00: Balanced after 1 trials
   
   194:00:00: Balanced after 2 trials
   
   194:10:23: Pump 9 changed by Tank 2 control
   194:10:23: Balanced after 15 trials
   194:10:23: Reservoir 9 is emptying
   194:10:23: Tank 2 is filling at 110.00 ft
   194:10:23: Pump 9 changed from closed to open
   
   195:00:00: Balanced after 2 trials
   
   196:00:00: Balanced after 3 trials
   
   197:00:00: Balanced after 2 trials
   
   198:00:00: Balanced after 2 trials
   
   199:00:00: Balanced after 2 trials
   
   200:00:00: Balanced after 2 trials
   
   201:00:00: Balanced after 2 trials
   
   202:00:00: Balanced after 2 trials
   
   203:00:00: Balanced after 2 trials
   
   204:00:00: Balanced after 3 trials
   
   205:00:00: Balanced after 2 trials
   
   206:00:00: Balanced after 3 trials
   
   207:00:00: Balanced after 2 trials
   
   208:00:00: Balanced after 3 trials
   
   208:19:46: Pump 9 changed by Tank 2 control
   208:19:46: Balanced after 4 trials
   208:19:46: Reservoir 9 is closed
   208:19:46: Tank 2 is emptying at 140.00 ft
   208:19:46: Pump 9 changed from open to closed
   
   209:00:00: Balanced after 1 trials
   
   210:00:00: Balanced after 2 trials
   
   211:00:00: Balanced after 1 trials
   
   212:00:00: Balanced after 2 trials
   
   213:00:00: Balanced after 1 trials
   
   214:00:00: Balanced after 2 trials
   
   215:00:00: Balanced after 1 trials
   
   216:00:00: Balanced after 2 trials
   
   217:00:00: Balanced after 1 trials
   
   218:00:00: Balanced after 2 trials
   
   218:10:25: Pump 9 changed by Tank 2 control
   218:10:25: Balanced after 15 trials
   218:10:25: Reservoir 9 is emptying
   218:10:25: Tank 2 is filling at 110.00 ft
   218:10:25: Pump 9 changed from closed to open
   
   219:00:00: Balanced after 2 trials
   
   220:00:00: Balanced after 3 trials
   
   221:00:00: Balanced after 2 trials
   
   222:00:00: Balanced after 2 trials
   
   223:00:00: Balanced after 2 trials
   
   224:00:00: Balanced after 2 trials
   
   225:00:00: Balanced after 2 trials
   
   226:00:00: Balanced after 2 trials
   
   227:00:00: Balanced after 2 trials
   
   228:00:00: Balanced after 3 trials
   
   229:00:00: Balanced after 2 trials
   
   230:00:00: Balanced after 3 trials
   
   231:00:00: Balanced after 2 trials
   
   232:00:00: Balanced after 3 trials
   
   232:19:47: Pump 9 changed by Tank 2 control
   232:19:47: Balanced after 4 trials
   232:19:47: Reservoir 9 is closed
   232:19:47: Tank 2 is emptying at 140.00 ft
   232:19:47: Pump 9 changed from open to closed
   
   233:00:00: Balanced after 1 trials
   
   234:00:00: Balanced after 2 trials
   
   235:00:00: Balanced after 1 trials
   
   236:00:00: Balanced after 2 trials
   
   237:00:00: Balanced after 1 trials
   
   238:00:00: Balanced after 2 trials
   
   239:00:00: Balanced after 1 trials
   
   240:00:00: Balanced after 2 trials
   
   241:00:00: Balanced after 1 trials
   
   242:00:00: Balanced after 2 trials
   
   242:10:25: Pump 9 changed by Tank 2 control
   242:10:25: Balanced after 15 trials
   242:10:25: Reservoir 9 is emptying
   242:10:25: Tank 2 is filling at 110.00 ft
   242:10:25: Pump 9 changed from closed to open
   
   243:00:00: Balanced after 2 trials
   
   244:00:00: Balanced after 3 trials
   
   245:00:00: Balanced after 2 trials
   
   246:00:00: Balanced after 2 trials
   
   247:00:00: Balanced after 2 trials
   
   248:00:00: Balanced after 2 trials
   
   249:00:00: Balanced after 2 trials
   
   250:00:00: Balanced after 2 trials
   
   251:00:00: Balanced after 2 trials
   
   252:00:00: Balanced after 3 trials
   
   253:00:00: Balanced after 2 trials
   
   254:00:00: Balanced after 3 trials
   
   255:00:00: Balanced after 2 trials
   
   256:00:00: Balanced after 3 trials
   
   256:19:47: Pump 9 changed by Tank 2 control
   256:19:47: Balanced after 4 trials
   256:19:47: Reservoir 9 is closed
   256:19:47: Tank 2 is emptying at 140.00 ft
   256:19:47: Pump 9 changed from open to closed
   
   257:00:00: Balanced after 1 trials
   
   258:00:00: Balanced after 2 trials
   
   259:00:00: Balanced after 1 trials
   
   260:00:00: Balanced after 2 trials
   
   261:00:00: Balanced after 1 trials
   
   262:00:00: Balanced after 2 trials
   
   263:00:00: Balanced after 1 trials
   
   264:00:00: Balanced after 2 trials
   
   265:00:00: Balanced after 1 trials
   
   266:00:00: Balanced after 2 trials
   
   266:10:25: Pump 9 changed by Tank 2 control
   266:10:25: Balanced after 15 trials
   266:10:25: Reservoir 9 is emptying
   266:10:25: Tank 2 is filling at 110.00 ft
   266:10:25: Pump 9 changed from closed to open
   
   267:00:00: Balanced after 2 trials
   
   268:00:00: Balanced after 3 trials
   
   269:00:00: Balanced after 2 trials
   
   270:00:00: Balanced after 2 trials
   
   271:00:00: Balanced after 2 trials
   
   272:00:00: Balanced after 2 trials
   
   273:00:00: Balanced after 2 trials
   
   274:00:00: Balanced after 2 trials
   
   275:00:00: Balanced after 2 trials
   
   276:00:00: Balanced after 3 trials
   
   277:00:00: Balanced after 2 trials
   
   278:00:00: Balanced after 3 trials
   
   279:00:00: Balanced after 2 trials
   
   280:00:00: Balanced after 3 trials
   
   280:19:47: Pump 9 changed by Tank 2 control
   280:19:47: Balanced after 4 trials
   280:19:47: Reservoir 9 is closed
   280:19:47: Tank 2 is emptying at 140.00 ft
   280:19:47: Pump 9 changed from open to closed
   
   281:00:00: Balanced after 1 trials
   
   282:00:00: Balanced after 2 trials
   
   283:00:00: Balanced after 1 trials
   
   284:00:00: Balanced after 2 trials
   
   285:00:00: Balanced after 1 trials
   
   286:00:00: Balanced after 2 trials
   
   287:00:00: Balanced after 1 trials
   
   288:00:00: Balanced after 2 trials
   
   289:00:00: Balanced after 1 trials
   
   290:00:00: Balanced after 2 trials
   
   290:10:25: Pump 9 changed by Tank 2 control
   290:10:25: Balanced after 15 trials
   290:10:25: Reservoir 9 is emptying
   290:10:25: Tank 2 is filling at 110.00 ft
   290:10:25: Pump 9 changed from closed to open
   
   291:00:00: Balanced after 2 trials
   
   292:00:00: Balanced after 3 trials
   
   293:00:00: Balanced after 2 trials
   
   294:00:00: Balanced after 2 trials
   
   295:00:00: Balanced after 2 trials
   
   296:00:00: Balanced after 2 trials
   
   297:00:00: Balanced after 2 trials
   
   298:00:00: Balanced after 2 trials
   
   299:00:00: Balanced after 2 trials
   
   300:00:00: Balanced after 3 trials
   
   301:00:00: Balanced after 2 trials
   
   302:00:00: Balanced after 3 trials
   
   303:00:00: Balanced after 2 trials
   
   304:00:00: Balanced after 3 trials
   
   304:19:47: Pump 9 changed by Tank 2 control
   304:19:47: Balanced after 4 trials
   304:19:47: Reservoir 9 is closed
   304:19:47: Tank 2 is emptying at 140.00 ft
   304:19:47: Pump 9 changed from open to closed
   
   305:00:00: Balanced after 1 trials
   
   306:00:00: Balanced after 2 trials
   
   307:00:00: Balanced after 1 trials
   
   308:00:00: Balanced after 2 trials
   
   309:00:00: Balanced after 1 trials
   
   310:00:00: Balanced after 2 trials
   
   311:00:00: Balanced after 1 trials
   
   312:00:00: Balanced after 2 trials
   
   313:00:00: Balanced after 1 trials
   
   314:00:00: Balanced after 2 trials
   
   314:10:25: Pump 9 changed by Tank 2 control
   314:10:25: Balanced after 15 trials
   314:10:25: Reservoir 9 is emptying
   314:10:25: Tank 2 is filling at 110.00 ft
   314:10:25: Pump 9 changed from closed to open
   
   315:00:00: Balanced after 2 trials
   
   316:00:00: Balanced after 3 trials
   
   317:00:00: Balanced after 2 trials
   
   318:00:00: Balanced after 2 trials
   
   319:00:00: Balanced after 2 trials
   
   320:00:00: Balanced after 2 trials
   
   321:00:00: Balanced after 2 trials
   
   322:00:00: Balanced after 2 trials
   
   323:00:00: Balanced after 2 trials
   
   324:00:00: Balanced after 3 trials
   
   325:00:00: Balanced after 2 trials
   
   326:00:00: Balanced after 3 trials
   
   327:00:00: Balanced after 2 trials
   
   328:00:00: Balanced after 3 trials
   
   328:19:46: Pump 9 changed by Tank 2 control
   328:19:46: Balanced after 4 trials
   328:19:46: Reservoir 9 is closed
   328:19:46: Tank 2 is emptying at 140.00 ft
   328:19:46: Pump 9 changed from open to closed
   
   329:00:00: Balanced after 1 trials
   
   330:00:00: Balanced after 2 trials
   
   331:00:00: Balanced after 1 trials
   
   332:00:00: Balanced after 2 trials
   
   333:00:00: Balanced after 1 trials
   
   334:00:00: Balanced after 2 trials
   
   335:00:00: Balanced after 1 trials
   
   336:00:00: Balanced after 2 trials
   
  Water Quality Mass Balance (mg)
  ================================
  Initial Mass:      0.00000e+000
  Mass Inflow:       1.51075e+008
  Mass Outflow:      7.03688e+007
  Mass Reacted:      7.68487e+007
  Final Mass:        3.85701e+006
  Mass Ratio:         1.00000
  ================================

  Water Quality Mass Balance (mg)
  ================================
  Initial Mass:      0.00000e+000
  Mass Inflow:       8.39303e+006
  Mass Outflow:      3.94660e+006
  Mass Reacted:      4.23205e+006
  Final Mass:        2.14383e+005
  Mass Ratio:         1.00000
  ================================

  Water Quality Mass Balance (mg)
  ================================
  Initial Mass:      0.00000e+000
  Mass Inflow:       1.67861e+007
  Mass Outflow:      7.84825e+006
  Mass Reacted:      8.51045e+006
  Final Mass:        4.27366e+005
  Mass Ratio:         1.00000
  ================================

  Water Quality Mass Balance (mg)
  ================================
  Initial Mass:      0.00000e+000
  Mass Inflow:       2.51791e+007
  Mass Outflow:      1.17455e+007
  Mass Reacted:      1.27912e+007
  Final Mass:        6.42343e+005
  Mass Ratio:         1.00000
  ================================

  Water Quality Mass Balance (mg)
  ================================
  Initial Mass:      0.00000e+000
  Mass Inflow:       3.35721e+007
  Mass Outflow:      1.56510e+007
  Mass Reacted:      1.70642e+007
  Final Mass:        8.56920e+005
  Mass Ratio:         1.00000
  ================================

  Water Quality Mass Balance (mg)
  ================================
  Initial Mass:      0.00000e+000
  Mass Inflow:       4.19651e+007
  Mass Outflow:      1.95578e+007
  Mass Reacted:      2.13362e+007
  Final Mass:        1.07120e+006
  Mass Ratio:         1.00000
  ================================

  Water Quality Mass Balance (mg)
  ================================
  Initial Mass:      0.00000e+000
  Mass Inflow:       5.03582e+007
  Mass Outflow:      2.34643e+007
  Mass Reacted:      2.56083e+007
  Final Mass:        1.28552e+006
  Mass Ratio:         1.00000
  ================================

  Water Quality Mass Balance (mg)
  ================================
  Initial Mass:      0.00000e+000
  Mass Inflow:       5.87512e+007
  Mass Outflow:      2.73716e+007
  Mass Reacted:      2.98797e+007
  Final Mass:        1.49995e+006
  Mass Ratio:         1.00000
  ================================

  Water Quality Mass Balance (mg)
  ================================
  Initial Mass:      0.00000e+000
  Mass Inflow:       6.71442e+007
  Mass Outflow:      3.12800e+007
  Mass Reacted:      3.41500e+007
  Final Mass:        1.71421e+006
  Mass Ratio:         1.00000
  ================================

  Water Quality Mass Balance (mg)
  ================================
  Initial Mass:      0.00000e+000
  Mass Inflow:       7.55373e+007
  Mass Outflow:      3.51892e+007
  Mass Reacted:      3.84196e+007
  Final Mass:        1.92851e+006
  Mass Ratio:         1.00000
  ================================

  Water Quality Mass Balance (mg)
  ================================
  Initial Mass:      0.00000e+000
  Mass Inflow:       8.39303e+007
  Mass Outflow:      3.90979e+007
  Mass Reacted:      4.26896e+007
  Final Mass:        2.14282e+006
  Mass Ratio:         1.00000
  ================================

  Water Quality Mass Balance (mg)
  ================================
  Initial Mass:      0.00000e+000
  Mass Inflow:       9.23233e+007
  Mass Outflow:      4.30050e+007
  Mass Reacted:      4.69612e+007
  Final Mass:        2.35707e+006
  Mass Ratio:         1.00000
  ================================

  Water Quality Mass Balance (mg)
  ================================
  Initial Mass:      0.00000e+000
  Mass Inflow:       1.00716e+008
  Mass Outflow:      4.69141e+007
  Mass Reacted:      5.12309e+007
  Final Mass:        2.57133e+006
  Mass Ratio:         1.00000
  ================================

  Water Quality Mass Balance (mg)
  ================================
  Initial Mass:      0.00000e+000
  Mass Inflow:       1.09109e+008
  Mass Outflow:      5.08232e+007
  Mass Reacted:      5.55005e+007
  Final Mass:        2.78560e+006
  Mass Ratio:         1.00000
  ================================

  Water Quality Mass Balance (mg)
  ================================
  Initial Mass:      0.00000e+000
  Mass Inflow:       1.17502e+008
  Mass Outflow:      5.47321e+007
  Mass Reacted:      5.97704e+007
  Final Mass:        2.99996e+006
  Mass Ratio:         1.00000
  ================================

  Water Quality Mass Balance (mg)
  ================================
  Initial Mass:      0.00000e+000
  Mass Inflow:       1.25895e+008
  Mass Outflow:      5.86413e+007
  Mass Reacted:      6.40399e+007
  Final Mass:        3.21416e+006
  Mass Ratio:         1.00000
  ================================

  Water Quality Mass Balance (mg)
  ================================
  Initial Mass:      0.00000e+000
  Mass Inflow:       1.34288e+008
  Mass Outflow:      6.25505e+007
  Mass Reacted:      6.83095e+007
  Final Mass:        3.42848e+006
  Mass Ratio:         1.00000
  ================================

  Water Quality Mass Balance (mg)
  ================================
  Initial Mass:      0.00000e+000
  Mass Inflow:       1.42681e+008
  Mass Outflow:      6.64597e+007
  Mass Reacted:      7.25790e+007
  Final Mass:        3.64274e+006
  Mass Ratio:         1.00000
  ================================

  Water Quality Mass Balance (mg)
  ================================
  Initial Mass:      0.00000e+000
  Mass Inflow:       1.51075e+008
  Mass Outflow:      7.03688e+007
  Mass Reacted:      7.68487e+007
  Final Mass:        3.85701e+006
  Mass Ratio:         1.00000
  ================================

  Water Quality Mass Balance (mg)
  ================================
  Initial Mass:      0.00000e+000
  Mass Inflow:       1.59468e+008
  Mass Outflow:      7.42780e+007
  Mass Reacted:      8.11182e+007
  Final Mass:        4.07129e+006
  Mass Ratio:         1.00000
  ================================

  Water Quality Mass Balance (mg)
  ================================
  Initial Mass:      0.00000e+000
  Mass Inflow:       1.67861e+008
  Mass Outflow:      7.81872e+007
  Mass Reacted:      8.53878e+007
  Final Mass:        4.28558e+006
  Mass Ratio:         1.00000
  ================================

  Water Quality Mass Balance (mg)
  ================================
  Initial Mass:      0.00000e+000
  Mass Inflow:       1.76254e+008
  Mass Outflow:      8.20964e+007
  Mass Reacted:      8.96573e+007
  Final Mass:        4.49988e+006
  Mass Ratio:         1.00000
  ================================

  Water Quality Mass Balance (mg)
  ================================
  Initial Mass:      0.00000e+000
  Mass Inflow:       1.84647e+008
  Mass Outflow:      8.60056e+007
  Mass Reacted:      9.39269e+007
  Final Mass:        4.71416e+006
  Mass Ratio:         1.00000
  ================================

  Water Quality Mass Balance (mg)
  ================================
  Initial Mass:      0.00000e+000
  Mass Inflow:       1.93040e+008
  Mass Outflow:      8.99148e+007
  Mass Reacted:      9.81964e+007
  Final Mass:        4.92844e+006
  Mass Ratio:         1.00000
  ================================

  Water Quality Mass Balance (mg)
  ================================
  Initial Mass:      0.00000e+000
  Mass Inflow:       2.01433e+008
  Mass Outflow:      9.38241e+007
  Mass Reacted:      1.02466e+008
  Final Mass:        5.14272e+006
  Mass Ratio:         1.00000
  ================================

  Water Quality Mass Balance (mg)
  ================================
  Initial Mass:      0.00000e+000
  Mass Inflow:       2.09826e+008
  Mass Outflow:      9.77333e+007
  Mass Reacted:      1.06735e+008
  Final Mass:        5.35702e+006
  Mass Ratio:         1.00000
  ================================

  Water Quality Mass Balance (mg)
  ================================
  Initial Mass:      0.00000e+000
  Mass Inflow:       2.18219e+008
  Mass Outflow:      1.01643e+008
  Mass Reacted:      1.11005e+008
  Final Mass:        5.57131e+006
  Mass Ratio:         1.00000
  ================================
